!-Generator IDFEditor 1.51
!-Option OriginalOrderTop UseSpecialFormat

!-NOTE: All comments with '!-' are ignored by the IDFEditor and are generated automatically.
!-      Use '!' comments if they need to be retained when using the IDFEditor.

Output:Variable,*,Zone Air Heat Balance Internal Convective Heat Gain Rate,Hourly;
ZoneAirContaminantBalance,Yes,Onschedule,Yes,Onschedule;
Output:Variable,*,Zone Air CO2 Concentration,Timestep;

ZoneMixing,
    flow1,                   !- Name
    NORTH ZONE,              !- Zone Name
    seventyfivepercent,      !- Schedule Name
    Flow/Zone,               !- Design Flow Rate Calculation Method
    0.1,                     !- Design Flow Rate {m3/s}
    ,                        !- Flow Rate per Zone Floor Area {m3/s-m2}
    ,                        !- Flow Rate per Person {m3/s-person}
    ,                        !- Air Changes per Hour {1/hr}
    West Zone,               !- Source Zone Name
    0;                       !- Delta Temperature {deltaC}

People,
    NORTH ZONE,              !- Name
    NORTH ZONE,              !- Zone or ZoneList or Space or SpaceList Name
    Onschedule,              !- Number of People Schedule Name
    People,                  !- Number of People Calculation Method
    5,                       !- Number of People
    ,                        !- People per Floor Area {person/m2}
    ,                        !- Floor Area per Person {m2/person}
    0.3,                     !- Fraction Radiant
    autocalculate,           !- Sensible Heat Fraction
    setpoint1,               !- Activity Level Schedule Name
    0.0000000382,            !- Carbon Dioxide Generation Rate {m3/s-W}
    No,                      !- Enable ASHRAE 55 Comfort Warnings
    ZoneAveraged,            !- Mean Radiant Temperature Calculation Type
    ,                        !- Surface Name/Angle Factor List Name
    ,                        !- Work Efficiency Schedule Name
    ClothingInsulationSchedule;  !- Clothing Insulation Calculation Method

People,
    West Zone,               !- Name
    West Zone,               !- Zone or ZoneList or Space or SpaceList Name
    Onschedule,              !- Number of People Schedule Name
    People,                  !- Number of People Calculation Method
    4,                       !- Number of People
    ,                        !- People per Floor Area {person/m2}
    ,                        !- Floor Area per Person {m2/person}
    0.3,                     !- Fraction Radiant
    autocalculate,           !- Sensible Heat Fraction
    setpoint1,               !- Activity Level Schedule Name
    0.0000000382,            !- Carbon Dioxide Generation Rate {m3/s-W}
    No,                      !- Enable ASHRAE 55 Comfort Warnings
    ZoneAveraged,            !- Mean Radiant Temperature Calculation Type
    ,                        !- Surface Name/Angle Factor List Name
    ,                        !- Work Efficiency Schedule Name
    ClothingInsulationSchedule;  !- Clothing Insulation Calculation Method

People,
    EAST ZONE,               !- Name
    EAST ZONE,               !- Zone or ZoneList or Space or SpaceList Name
    Onschedule,              !- Number of People Schedule Name
    People,                  !- Number of People Calculation Method
    3,                       !- Number of People
    ,                        !- People per Floor Area {person/m2}
    ,                        !- Floor Area per Person {m2/person}
    0.3,                     !- Fraction Radiant
    autocalculate,           !- Sensible Heat Fraction
    setpoint1,               !- Activity Level Schedule Name
    0.0000000382,            !- Carbon Dioxide Generation Rate {m3/s-W}
    No,                      !- Enable ASHRAE 55 Comfort Warnings
    ZoneAveraged,            !- Mean Radiant Temperature Calculation Type
    ,                        !- Surface Name/Angle Factor List Name
    ,                        !- Work Efficiency Schedule Name
    ClothingInsulationSchedule;  !- Clothing Insulation Calculation Method

Output:Variable,*,People Total Heating Rate,Timestep;

ZoneInfiltration:DesignFlowRate,
    EAST ZONE,               !- Name
    EAST ZONE,               !- Zone or ZoneList Name
    Offschedule,             !- Schedule Name
    Flow/Zone,               !- Design Flow Rate Calculation Method
    0.01,                    !- Design Flow Rate {m3/s}
    ,                        !- Flow per Zone Floor Area {m3/s-m2}
    ,                        !- Flow per Exterior Surface Area {m3/s-m2}
    ,                        !- Air Changes per Hour {1/hr}
    1,                       !- Constant Term Coefficient
    ,                        !- Temperature Term Coefficient
    ,                        !- Velocity Term Coefficient
    ;                        !- Velocity Squared Term Coefficient

ZoneInfiltration:DesignFlowRate,
    NORTH ZONE,              !- Name
    NORTH ZONE,              !- Zone or ZoneList Name
    Offschedule,             !- Schedule Name
    Flow/Zone,               !- Design Flow Rate Calculation Method
    0.01,                    !- Design Flow Rate {m3/s}
    ,                        !- Flow per Zone Floor Area {m3/s-m2}
    ,                        !- Flow per Exterior Surface Area {m3/s-m2}
    ,                        !- Air Changes per Hour {1/hr}
    1,                       !- Constant Term Coefficient
    ,                        !- Temperature Term Coefficient
    ,                        !- Velocity Term Coefficient
    ;                        !- Velocity Squared Term Coefficient

Lights,
    NORTH ZONE,              !- Name
    NORTH ZONE,              !- Zone or ZoneList or Space or SpaceList Name
    Onschedule,              !- Schedule Name
    LightingLevel,           !- Design Level Calculation Method
    0,                       !- Lighting Level {W}
    ,                        !- Watts per Zone Floor Area {W/m2}
    ,                        !- Watts per Person {W/person}
    ,                        !- Return Air Fraction
    ,                        !- Fraction Radiant
    ,                        !- Fraction Visible
    1,                       !- Fraction Replaceable
    General,                 !- End-Use Subcategory
    No;                      !- Return Air Fraction Calculated from Plenum Temperature

Lights,
    West Zone,               !- Name
    West Zone,               !- Zone or ZoneList or Space or SpaceList Name
    Onschedule,              !- Schedule Name
    LightingLevel,           !- Design Level Calculation Method
    0,                       !- Lighting Level {W}
    ,                        !- Watts per Zone Floor Area {W/m2}
    ,                        !- Watts per Person {W/person}
    ,                        !- Return Air Fraction
    ,                        !- Fraction Radiant
    ,                        !- Fraction Visible
    1,                       !- Fraction Replaceable
    General,                 !- End-Use Subcategory
    No;                      !- Return Air Fraction Calculated from Plenum Temperature

Lights,
    EAST ZONE,               !- Name
    EAST ZONE,               !- Zone or ZoneList or Space or SpaceList Name
    Onschedule,              !- Schedule Name
    LightingLevel,           !- Design Level Calculation Method
    0,                       !- Lighting Level {W}
    ,                        !- Watts per Zone Floor Area {W/m2}
    ,                        !- Watts per Person {W/person}
    ,                        !- Return Air Fraction
    ,                        !- Fraction Radiant
    ,                        !- Fraction Visible
    1,                       !- Fraction Replaceable
    General,                 !- End-Use Subcategory
    No;                      !- Return Air Fraction Calculated from Plenum Temperature

Output:Variable,*,Surface Inside Face Temperature,Timestep;

Controller:OutdoorAir,
    OA Controller 1,         !- Name
    Relief Air Outlet Node,  !- Relief Air Outlet Node Name
    Air Loop Inlet Node,     !- Return Air Node Name
    Mixed Air Node,          !- Mixed Air Node Name
    Outside Air Inlet Node,  !- Actuator Node Name
    0,                       !- Minimum Outdoor Air Flow Rate {m3/s}
    0,                       !- Maximum Outdoor Air Flow Rate {m3/s}
    NoEconomizer,            !- Economizer Control Type
    ,                        !- Economizer Control Action Type
    19,                      !- Economizer Maximum Limit Dry-Bulb Temperature {C}
    ,                        !- Economizer Maximum Limit Enthalpy {J/kg}
    ,                        !- Economizer Maximum Limit Dewpoint Temperature {C}
    ,                        !- Electronic Enthalpy Limit Curve Name
    4,                       !- Economizer Minimum Limit Dry-Bulb Temperature {C}
    NoLockout,               !- Lockout Type
    ProportionalMinimum;     !- Minimum Limit Type

OutdoorAir:Mixer,
    OA Mixing Box 1,         !- Name
    Mixed Air Node,          !- Mixed Air Node Name
    Outside Air Inlet Node,  !- Outdoor Air Stream Node Name
    Relief Air Outlet Node,  !- Relief Air Stream Node Name
    Air Loop Inlet Node;     !- Return Air Stream Node Name

AirLoopHVAC:OutdoorAirSystem,
    OA Sys 1,                !- Name
    OA Sys 1 Controllers,    !- Controller List Name
    OA Sys 1 Equipment;      !- Outdoor Air Equipment List Name

AirLoopHVAC:ControllerList,
    OA Sys 1 Controllers,    !- Name
    Controller:OutdoorAir,   !- Controller 1 Object Type
    OA Controller 1;         !- Controller 1 Name

AirLoopHVAC:OutdoorAirSystem:EquipmentList,
    OA Sys 1 Equipment,      !- Name
    OutdoorAir:Mixer,        !- Component 1 Object Type
    OA Mixing Box 1;         !- Component 1 Name

SizingPeriod:DesignDay,
    ch4,                     !- Name
    1,                       !- Month
    1,                       !- Day of Month
    WinterDesignDay,         !- Day Type
    5,                       !- Maximum Dry-Bulb Temperature {C}
    0,                       !- Daily Dry-Bulb Temperature Range {deltaC}
    DefaultMultipliers,      !- Dry-Bulb Temperature Range Modifier Type
    ,                        !- Dry-Bulb Temperature Range Modifier Day Schedule Name
    WetBulb,                 !- Humidity Condition Type
    -17.3,                   !- Wetbulb or DewPoint at Maximum Dry-Bulb {C}
    ,                        !- Humidity Condition Day Schedule Name
    ,                        !- Humidity Ratio at Maximum Dry-Bulb {kgWater/kgDryAir}
    ,                        !- Enthalpy at Maximum Dry-Bulb {J/kg}
    ,                        !- Daily Wet-Bulb Temperature Range {deltaC}
    99063,                   !- Barometric Pressure {Pa}
    4.9,                     !- Wind Speed {m/s}
    270,                     !- Wind Direction {deg}
    No,                      !- Rain Indicator
    No,                      !- Snow Indicator
    No,                      !- Daylight Saving Time Indicator
    ASHRAEClearSky,          !- Solar Model Indicator
    ,                        !- Beam Solar Day Schedule Name
    ,                        !- Diffuse Solar Day Schedule Name
    ,                        !- ASHRAE Clear Sky Optical Depth for Beam Irradiance (taub) {dimensionless}
    ,                        !- ASHRAE Clear Sky Optical Depth for Diffuse Irradiance (taud) {dimensionless}
    0;                       !- Sky Clearness

Schedule:Compact,
    twentyfivepercent,       !- Name
    Fraction,                !- Schedule Type Limits Name
    Through: 12/31,          !- Field 1
    For: AllDays,            !- Field 2
    Until:  24:00, .25;      !- Field 4

Schedule:Compact,
    fiftypercent,            !- Name
    Fraction,                !- Schedule Type Limits Name
    Through: 12/31,          !- Field 1
    For: AllDays,            !- Field 2
    Until:  24:00, .5;       !- Field 4

Schedule:Compact,
    seventyfivepercent,      !- Name
    Fraction,                !- Schedule Type Limits Name
    Through: 12/31,          !- Field 1
    For: AllDays,            !- Field 2
    Until:  24:00, .75;      !- Field 4

Output:Meter,EnergyTransfer:Building ,Timestep;
Output:Meter,Heating:EnergyTransfer:Zone:EAST ZONE ,Timestep;
Output:Meter,Heating:EnergyTransfer:Zone:WEST ZONE ,Timestep;
Output:Meter,Heating:EnergyTransfer:Zone:NORTH ZONE ,Timestep;
Output:Meter,Heating:EnergyTransfer:Zone:WEST ZONE ,Timestep;

ZoneInfiltration:DesignFlowRate,
    West Zone,               !- Name
    West Zone,               !- Zone or ZoneList Name
    fiftypercent,            !- Schedule Name
    Flow/Zone,               !- Design Flow Rate Calculation Method
    0.01,                    !- Design Flow Rate {m3/s}
    ,                        !- Flow per Zone Floor Area {m3/s-m2}
    ,                        !- Flow per Exterior Surface Area {m3/s-m2}
    ,                        !- Air Changes per Hour {1/hr}
    1,                       !- Constant Term Coefficient
    ,                        !- Temperature Term Coefficient
    ,                        !- Velocity Term Coefficient
    ;                        !- Velocity Squared Term Coefficient

ZoneCrossMixing,
    flow,                    !- Name
    EAST ZONE,               !- Zone Name
    seventyfivepercent,      !- Schedule Name
    Flow/Zone,               !- Design Flow Rate Calculation Method
    0.1,                     !- Design Flow Rate {m3/s}
    ,                        !- Flow Rate per Zone Floor Area {m3/s-m2}
    ,                        !- Flow Rate per Person {m3/s-person}
    ,                        !- Air Changes per Hour {1/hr}
    West Zone,               !- Source Zone Name
    0;                       !- Delta Temperature {deltaC}

ZoneMixing,
    flow2,                   !- Name
    NORTH ZONE,              !- Zone Name
    seventyfivepercent,      !- Schedule Name
    Flow/Zone,               !- Design Flow Rate Calculation Method
    0.1,                     !- Design Flow Rate {m3/s}
    ,                        !- Flow Rate per Zone Floor Area {m3/s-m2}
    ,                        !- Flow Rate per Person {m3/s-person}
    ,                        !- Air Changes per Hour {1/hr}
    West Zone,               !- Source Zone Name
    0;                       !- Delta Temperature {deltaC}

Output:Variable,*,Heating Coil Heating Rate ,Timestep;
Output:Variable,*,Zone Air Terminal Sensible Cooling Rate ,Timestep;
Output:Variable,*,Zone Air Terminal Sensible Heating Energy ,Timestep;

EnergyManagementSystem:Sensor,
    TimeBlock,               !- Name
    TimeOfDaySchedule,       !- Output:Variable or Output:Meter Index Key Name
    Schedule Value;          !- Output:Variable or Output:Meter Name

Output:Variable,*,Site Direct Solar Radiation Rate per Area ,Timestep;

Output:Diagnostics,
    DisplayExtraWarnings;    !- Key 1

Schedule:Compact,
    shedulevent,             !- Name
    Fraction,                !- Schedule Type Limits Name
    Through: 12/31,          !- Field 1
    For: AllDays,            !- Field 2
    Until:  24:00, .1;       !- Field 4

Output:Variable,*,Zone air Temperature,Timestep;

AirflowNetwork:MultiZone:Component:SimpleOpening,
    DrOpen2,                 !- Name
    0.00001,                 !- Air Mass Flow Coefficient When Opening is Closed {kg/s-m}
    0.65,                    !- Air Mass Flow Exponent When Opening is Closed {dimensionless}
    0.0001,                  !- Minimum Density Difference for Two-Way Flow {kg/m3}
    0.55;                    !- Discharge Coefficient {dimensionless}

AirflowNetwork:MultiZone:Component:SimpleOpening,
    DrOpen3,                 !- Name
    0.00001,                 !- Air Mass Flow Coefficient When Opening is Closed {kg/s-m}
    0.65,                    !- Air Mass Flow Exponent When Opening is Closed {dimensionless}
    0.0001,                  !- Minimum Density Difference for Two-Way Flow {kg/m3}
    0.55;                    !- Discharge Coefficient {dimensionless}

Output:Variable,*,Site Outdoor Air Drybulb Temperature ,Timestep;

EnergyManagementSystem:Sensor,
    Apt1,                    !- Name
    North Zone,              !- Output:Variable or Output:Meter Index Key Name
    Zone Mean Air Temperature ;  !- Output:Variable or Output:Meter Name

EnergyManagementSystem:Sensor,
    Apt2,                    !- Name
    East Zone,               !- Output:Variable or Output:Meter Index Key Name
    Zone Mean Air Temperature ;  !- Output:Variable or Output:Meter Name

Output:Variable,*,Zone Air Terminal Sensible Heating Rate ,Timestep;

FenestrationSurface:Detailed,
    Zn001:Wall004:Door002,   !- Name
    Door,                    !- Surface Type
    DOOR-CON,                !- Construction Name
    Zn001:Wall004,           !- Building Surface Name
    Zn002:Wall004:Door002,   !- Outside Boundary Condition Object
    0.5,                     !- View Factor to Ground
    ,                        !- Frame and Divider Name
    1,                       !- Multiplier
    4,                       !- Number of Vertices
    6.069, 2.5, 2,                      !- X,Y,Z  1 {m}
    6.069, 2.5, 0,                      !- X,Y,Z  2 {m}
    6.069, 3.5, 0,                      !- X,Y,Z  3 {m}
    6.069, 3.5, 2;                      !- X,Y,Z  4 {m}

FenestrationSurface:Detailed,
    Zn002:Wall004:Door002,   !- Name
    Door,                    !- Surface Type
    DOOR-CON,                !- Construction Name
    Zn002:Wall004,           !- Building Surface Name
    Zn001:Wall004:Door002,   !- Outside Boundary Condition Object
    0.5,                     !- View Factor to Ground
    ,                        !- Frame and Divider Name
    1,                       !- Multiplier
    4,                       !- Number of Vertices
    6.069, 3.5, 2,                      !- X,Y,Z  1 {m}
    6.069, 3.5, 0,                      !- X,Y,Z  2 {m}
    6.069, 2.5, 0,                      !- X,Y,Z  3 {m}
    6.069, 2.5, 2;                      !- X,Y,Z  4 {m}

FenestrationSurface:Detailed,
    Zn001:Wall001:Door003,   !- Name
    Door,                    !- Surface Type
    DOOR-CON,                !- Construction Name
    Zn001:Wall001,           !- Building Surface Name
    ,                        !- Outside Boundary Condition Object
    0.5,                     !- View Factor to Ground
    ,                        !- Frame and Divider Name
    1,                       !- Multiplier
    4,                       !- Number of Vertices
    3.5, 0, 2,                          !- X,Y,Z  1 {m}
    3.5, 0, 0,                          !- X,Y,Z  2 {m}
    4.5, 0, 0,                          !- X,Y,Z  3 {m}
    4.5, 0, 2;                          !- X,Y,Z  4 {m}

FenestrationSurface:Detailed,
    Zn003:Wall002:Door004,   !- Name
    Door,                    !- Surface Type
    DOOR-CON,                !- Construction Name
    Zn003:Wall002,           !- Building Surface Name
    ,                        !- Outside Boundary Condition Object
    0.5,                     !- View Factor to Ground
    ,                        !- Frame and Divider Name
    1,                       !- Multiplier
    4,                       !- Number of Vertices
    4.5, 12.192, 2,                     !- X,Y,Z  1 {m}
    4.5, 12.192, 0,                     !- X,Y,Z  2 {m}
    3.5, 12.192, 0,                     !- X,Y,Z  3 {m}
    3.5, 12.192, 2;                     !- X,Y,Z  4 {m}

Schedule:Compact,
    setpoint1,               !- Name
    Temperature,             !- Schedule Type Limits Name
    Through: 12/31,          !- Field 1
    For: AllDays,            !- Field 2
    Until:  24:00, 200;      !- Field 4

Schedule:Constant,Cycle,On/Off,0;

EnergyManagementSystem:Sensor,
    AptTemp,                 !- Name
    West Zone,               !- Output:Variable or Output:Meter Index Key Name
    Zone Mean Air Temperature;  !- Output:Variable or Output:Meter Name

EnergyManagementSystem:Sensor,
    hSP,                     !- Name
    West Zone,               !- Output:Variable or Output:Meter Index Key Name
    Zone Thermostat Heating Setpoint Temperature;  !- Output:Variable or Output:Meter Name

EnergyManagementSystem:Actuator,
    AvailSCH_Overwrite,      !- Name
    Cycle,                   !- Actuated Component Unique Name
    Schedule:Constant,       !- Actuated Component Type
    Schedule Value;          !- Actuated Component Control Type

EnergyManagementSystem:ProgramCallingManager,
    Supervision,             !- Name
    BeginTimestepBeforePredictor,  !- EnergyPlus Model Calling Point
    HVAC_uncontrolledloop_Supervision;  !- Program Name 1

! Randomly chosen
! Randomly chosen
! Randomly chosen
! Randomly chosen
! Randomly chosen
! Randomly chosen
! Randomly chosen
! Randomly chosen
! Randomly chosen
! Randomly chosen
! Randomly chosen
! Randomly chosen
! Randomly chosen
! Randomly chosen
! Randomly chosen
EnergyManagementSystem:Program,
    HVAC_uncontrolledloop_Supervision,  !- Name
    IF TimeBlock == 1,       !- Program Line 1
    SET AvailSCH_Overwrite =1,  !- Program Line 2
    ELSEIF TimeBlock == 2,   !- A4
    SET AvailSCH_Overwrite = 0,  !- A5
    ENDIF;                   !- A6

Schedule:Compact,
    Offschedule,             !- Name
    Fraction,                !- Schedule Type Limits Name
    Through: 12/31,          !- Field 1
    For: AllDays,            !- Field 2
    Until:  24:00, 0;        !- Field 4

Schedule:Compact,
    Onschedule,              !- Name
    Fraction,                !- Schedule Type Limits Name
    Through: 12/31,          !- Field 1
    For: AllDays,            !- Field 2
    Until:  24:00, 1;        !- Field 4

Schedule:Compact,
    Heatingsetpoint,         !- Name
    Temperature,             !- Schedule Type Limits Name
    Through: 12/31,          !- Field 1
    For: AllDays,            !- Field 2
    Until:  24:00, 60;       !- Field 4

ThermostatSetpoint:SingleHeating,
    Setpoints,               !- Name
    Heatingsetpoint;         !- Setpoint Temperature Schedule Name

! AirflowNetwork_MultiZone_SmallOffice_VAV.idf
! Basic file description:  1 story building divided into 3 interior conditioned zones and 1 unconditioned zone over the
!                          conditioned zones. Roof with no plenum. No ground contact with floor.
!                          Outdoor air is modulated based on occupancy and floor area.
!
! Highlights:              This file does the basic test of an air distribution system with a VAV central system using
!                          the AiflowNetwork model. It simulates multizone aiorflows driven by wind and a VAV supply fan,
!                          and energy losses from leaks and conduction in an air distribution system.
!
!
! Simulation Location/Run: CHICAGO_IL_USA TMY2-94846, 2 design days, 2 run periods,
!                          Run Control executes the design days only.
!
! Location:                Chicago, IL
!
! Design Days:             CHICAGO_IL_USA Annual Heating 99% Design Conditions DB, MaxDB= -17.3°C
!                          CHICAGO_IL_USA Annual Cooling 1% Design Conditions, MaxDB=  31.5°C MCWB=  23.0°C
!
! Run Period (Weather File): Winter 1/14, Summer 7/7, CHICAGO_IL_USA TMY2-94846
!
! Run Control:             Zone and system sizing, design day simulation.
!
! Building: Single floor rectangular L-shaped building 40 ft south wall, 40 ft west wall, zone height 10 feet.
!           There is a single window in West Zone's south wall. The walls are 1 in stucco over 4 in common brick
!           and gypboard. The ceilings consist of 1 in dense insulation
!           and 3/4" gypsum drywall. A unconditioned attic zone is over three conditioned zones with height 3 feet.
!           The roof is a built up roof with 1/2 in stone over 3/8 in felt supported by 2 in heavy weight concrete.
!           The window to wall ratio is approximately 0.07.
!
!           There is a duct system with about 5% supply leaks and 5% return leaks.
!           Supply ducts are located in the attic zone and return ducts are exposed to outdoors.
!           Both supply and return conduction losses occur in the attic zone.
!
!           There is daylighting through the window in West Zone. The window has double-pane electrochromic
!           (switchable) glazing in which the outer pane darkens automatically to control daylight glare.
!           Spectral (wavelength by wavelength) data are used for the optical properties
!           of the inner pane of the double glazing. Spectral average properties are used
!           for the outer (electrochromic) pane.
!
!           The window also has a frame and divider. The 2-D glass conduction effects near
!           the frame and divider ("edge-of-glass effects") are taken into account.
!
!           The overhead electric lighting has continuous dimming control. The zone has a
!           single daylighting control point ("reference point") with an illuminance set point
!           of 500 lux (about 50 footcandles). The reference point is located at the center of
!           the zone at desk height. The other zones have no windows and so have no daylighting controls.
!           Note that Clearness for the winter design day is not 0.0, as in the other sample inputs,
!           but 1.0. This turns on solar radiation in order to show the effect of daylighting in the winter.
!           (With Clearness = 0 all daylighting illuminances are zero)
!
!           The building is oriented due north.
!
! Floor Area:        130.1 m2 (1403 ft2)
! Number of Stories: 1
!
! Conditioned Zone Description Details:
!
!       (0,12.192,0)                 (9.144,12.192,0)
!           ________________________________
!          |                                |
!          |                                |
!          |                                |
!          |                                |
!          |           North                |
!          |                                |
!          |                                |
!          |             (6.096,6.096,0)    |
!          |________________________________|____________ (12.192,6.069,0)
!          | (0,6.096,0)        |    (9.144,6.096,0)     |
!          |                    |                        |
!          |                    |                        |
!          |                    |                        |
!          |       West         |         East           |    window = *
!          |                    |                        |
!          |                    |                        |
!          |                    |                        |
!          |___**************___|________________________|
!
!      (0,0,0)             (6.069,0,0)               (12.192,0,0)
!
! Internal gains description:     ZONE West      - lighting is 1464.375 watts, equip is 2928.751 watts, 3 occupants
! Internal gains description:     ZONE North     - lighting is 1464.375 watts, equip is 2928.751 watts, 4 occupants
! Internal gains description:     ZONE East      - lighting is 1464.375 watts, equip is 1464.375 watts, 3 occupants
!
! Interzone Surfaces:             3 interzone surfaces (see diagram), and ceilings between three zonditioned zones and attic zone
! Internal Mass:                  None
! People:                         10
! Lights:                         3807 W
! Equipment:                      7323 W
! Windows:                        1
! Detached Shading:               None
! Daylight:                       Yes (Daylighting:Detailed)
! Natural Ventilation :           AirflowNetwork Multizone
! Compact Schedules:              Yes
! Solair Distribution:            FullInteriorAndExterior
! HVAC:                           3 zone central system using a single air loop. DX cooling coil provides space cooling.
!                                 A gas heating coils provides main heating and 3 terminal reheat coils provide supplemental heating.
!                                 Thermostat setting at 22 C in winter with 15 C set back temperature, 24 C in summer
!                                 with 30 C set back temperature. Cooling coil off in winter, heating coil on all year.
!                                 A variable air volume supply fan is used. The minimum flow rate of each terminal is 20% of the desing
!                                 air flow rate.
!
! Zonal Equipment:                West Zone - AIR DISTRIBUTION UNIT with AirTerminal:SingleDuct:VAV:Reheat
!                                 East Zone - AIR DISTRIBUTION UNIT with AirTerminal:SingleDuct:VAV:Reheat
!                                 North Zone - AIR DISTRIBUTION UNIT with AirTerminal:SingleDuct:VAV:Reheat
! Central Air Handling Equipment: Yes using a VAV supply fan
! System Equipment Autosize:      Yes
! Purchased Cooling:              No
! Purchased Heating:              No
! Purchased Chilled Water:        No
! Purchased Hot Water:            No
! Coils:                          A main heating coil and 3 terminal reheat coils using Coil:Heating:Fuel
!                                 Coil:Cooling:DX:TwoSpeed
! Pumps:                          None
! Boilers:                        None
! Chillers:                       None
! Towers:                         None
!
! Results:
! Standard Reports:               None
! Timestep or Hourly Variables:   Timestep
! Time bins Report:               None
! HTML Report:                    None